Version 4
SHEET 1 1824 896
WIRE -96 64 -272 64
WIRE 352 64 -96 64
WIRE 592 64 416 64
WIRE 640 64 592 64
WIRE 784 64 720 64
WIRE 944 64 784 64
WIRE 1104 64 944 64
WIRE 1136 64 1104 64
WIRE 944 96 944 64
WIRE -96 128 -96 64
WIRE -64 128 -96 128
WIRE 304 128 272 128
WIRE 352 128 352 64
WIRE 352 128 304 128
WIRE -272 144 -272 64
WIRE 592 160 592 64
WIRE 784 160 784 64
WIRE 1136 176 1136 64
WIRE -96 208 -96 128
WIRE -64 208 -96 208
WIRE 304 208 272 208
WIRE 416 208 416 64
WIRE 416 208 304 208
WIRE 944 208 944 176
WIRE 976 208 944 208
WIRE 944 224 944 208
WIRE -272 288 -272 224
WIRE -272 288 -416 288
WIRE -64 288 -272 288
WIRE 304 288 272 288
WIRE 416 288 368 288
WIRE -416 320 -416 288
WIRE 416 336 416 288
WIRE 592 336 592 224
WIRE 784 336 784 224
WIRE 944 336 944 304
WIRE 1136 336 1136 256
WIRE -272 352 -272 288
WIRE -64 368 -112 368
WIRE 320 368 272 368
WIRE -416 480 -416 400
WIRE -272 480 -272 416
WIRE -112 480 -112 368
FLAG -416 480 0
FLAG -272 480 0
FLAG 592 336 0
FLAG 1104 64 Vout
FLAG 944 336 0
FLAG -112 480 0
FLAG 304 128 SWC
FLAG 416 336 0
FLAG -416 288 Vin
FLAG 304 208 SWE
FLAG 784 336 0
FLAG 976 208 Cinv
IOPIN 976 208 Out
FLAG 320 368 Cinv
IOPIN 320 368 In
FLAG 1136 336 0
SYMBOL voltage -416 304 R0
WINDOW 123 0 0 Left 0
WINDOW 39 24 132 Left 2
SYMATTR SpiceLine Rser=0
SYMATTR InstName Vin
SYMATTR Value {Vin}
SYMBOL res -256 240 R180
WINDOW 0 -39 87 Left 2
WINDOW 3 -76 44 Left 2
SYMATTR InstName Rsc
SYMATTR Value {Rsc}
SYMBOL cap 304 304 R270
WINDOW 0 32 32 VTop 2
WINDOW 3 0 32 VBottom 2
SYMATTR InstName Ct
SYMATTR Value {Ct}
SYMBOL res 928 80 R0
SYMATTR InstName R2
SYMATTR Value {R2}
SYMBOL res 928 208 R0
SYMATTR InstName R1
SYMATTR Value {R1}
SYMBOL polcap 768 160 R0
WINDOW 39 24 113 Left 2
WINDOW 40 24 85 Left 2
SYMATTR InstName Cout
SYMATTR Value {Cout}
SYMBOL polcap -288 352 R0
WINDOW 39 24 113 Left 2
WINDOW 40 24 85 Left 2
SYMATTR InstName Cin
SYMATTR Value {Cin}
SYMBOL mc34063 176 224 R0
SYMATTR InstName U1
SYMBOL ind 624 80 R270
WINDOW 0 32 56 VTop 2
WINDOW 3 5 56 VBottom 2
SYMATTR InstName L1
SYMATTR Value {L1}
SYMBOL schottky 608 224 R180
WINDOW 0 24 64 Left 2
WINDOW 3 24 0 Left 2
SYMATTR InstName D1
SYMATTR Value 1N5819
SYMATTR Description Diode
SYMATTR Type diode
SYMBOL res 1120 160 R0
SYMATTR InstName RL
SYMATTR Value {RL}
TEXT -368 -72 Left 2 !.inc MC34063.lib
TEXT 128 488 Left 2 !.param Vin 12V\n.param f 40KHz\n.param T 1/f\n.param D 0.416\n \n.param RL 5\n.param R1 1K\n.param R2 3k\n.param Rsc 0.15\n \n.param L1 47u\n \n.param Cout 250uF\n.param Cin 100uF\n.param Ct 470pF
TEXT -368 -48 Left 2 !.options Gmin=1e-9 method=Gear
TEXT -368 -16 Left 2 !.tran 0 7m 0.1m 100n uic
